!!>>>>>>>>>>>>>>>>>>>>>>>>>>>>>>>>>>>>>>>>>>>>>>>>>>>>>>>>>>>>>>>>>>>>>>
!! NEMO/OPA  :  1 - run manager      (namrun)
!! namelists    2 - Domain           (namcfg, namzgr, namzgr_sco, namdom, namtsd)
!!              3 - Surface boundary (namsbc, namsbc_ana, namsbc_flx, namsbc_clio, namsbc_core, namsbc_sas
!!                                    namsbc_cpl, namtra_qsr, namsbc_rnf,
!!                                    namsbc_apr, namsbc_ssr, namsbc_alb)
!!              4 - lateral boundary (namlbc, namcla, namagrif, nambdy, nambdy_tide)
!!              5 - bottom  boundary (nambfr, nambbc, nambbl)
!!              6 - Tracer           (nameos, namtra_adv, namtra_ldf, namtra_dmp)
!!              7 - dynamics         (namdyn_adv, namdyn_vor, namdyn_hpg, namdyn_spg, namdyn_ldf)
!!              8 - Verical physics  (namzdf, namzdf_ric, namzdf_tke, namzdf_kpp, namzdf_ddm, namzdf_tmx, namzdf_tmx_new)
!!              9 - diagnostics      (namnc4, namtrd, namspr, namflo, namhsb, namsto)
!!             10 - miscellaneous    (namsol, nammpp, namctl)
!!             11 - Obs & Assim      (namobs, nam_asminc)
!!>>>>>>>>>>>>>>>>>>>>>>>>>>>>>>>>>>>>>>>>>>>>>>>>>>>>>>>>>>>>>>>>>>>>>>

!!======================================================================
!!                   ***  Run management namelists  ***
!!======================================================================
!!   namrun       parameters of the run
!!======================================================================
!
!-----------------------------------------------------------------------
&namrun        !   parameters of the run
!-----------------------------------------------------------------------
   nn_no       =   %NSEG%   !  job number (still used by DRAKKAR modifications for file names)
   cn_exp      =  "%EXPT%"  ! #SLX!
   nn_it000    =  %NIT000%  !  first time step
   nn_itend    =  %NITEND%  !  last  time step
   nn_date0    =  %NDATE0%  !  date at nit_0000 (format yyyymmdd) used if ln_rstart=F or (ln_rstart=T and nn_rstctl=0 or 1)
   nn_leapy    =       1    !  Leap year calendar (1) or not (0)
   ln_rstart   =  .true.    !  start from rest (F) or from a restart file (T)
   nn_euler    =  0         !  = 0 : start with forward time step if ln_rstart=T  #lulu
   nn_rstctl   =  2         !  restart control => activated only if ln_rstart = T
                            !    = 0 nn_date0 read in namelist ; nn_it000 : read in namelist
                            !    = 1 nn_date0 read in namelist ; nn_it000 : check consistancy between namelist and restart
                            !    = 2 nn_date0 read in restart  ; nn_it000 : check consistancy between namelist and restart
   cn_ocerst_in    = 'restart_oce'
   cn_ocerst_indir = "/gpfsstore/rech/egi/regi915/MEDWEST60/%EXPTREF%-R/RST_OCE"   !  directory from which to read input ocean restarts
   cn_ocerst_out = 'restart_oce'
   cn_ocerst_outdir = "/gpfsstore/rech/egi/regi915/MEDWEST60/%EXPTREF%-R/RST_OCE"      !  directory in which to write output ocean restarts
   nn_istate   =    0    !  output the initial state (1) or not (0)
!!
!! 1D is 1800 time steps at dt=80s !
   nn_stock    =   1800   !  5d at dt=80s  frequency of creation of a restart file (modulo referenced to 1)
   nn_write    =   1800   !  5d at dt=80s  frequency of write in the output file   (modulo referenced to nn_it000)
!! 5D is 5400 time steps at dt=80s !
!!   nn_stock    =   5400   !  5d at dt=80s  frequency of creation of a restart file (modulo referenced to 1)
!!   nn_write    =   5400   !  5d at dt=80s  frequency of write in the output file   (modulo referenced to nn_it000)
!! 
   ln_dimgnnn  = .false.   !  DIMG file format: 1 file for all processors (F) or by processor (T)
   ln_mskland  = .false.   !  mask land points in NetCDF outputs (costly: + ~15%)
   ln_clobber  = .true.    ! #LOLO!  clobber (overwrite) an existing file
!!   nn_chunksz  =       0   !  chunksize (bytes) for NetCDF file (works only with iom_nf90 routines)
/
!
!!======================================================================
!!                      ***  Domain namelists  ***
!!======================================================================
!!   namcfg       parameters of the configuration
!!   namzgr       vertical coordinate
!!   namzgr_sco   s-coordinate or hybrid z-s-coordinate
!!   namdom       space and time domain (bathymetry, mesh, timestep)
!!   namtsd       data: temperature & salinity
!!======================================================================
!
!-----------------------------------------------------------------------
&namcfg     !   parameters of the configuration
!-----------------------------------------------------------------------
   cp_cfg      =  'medwest'           ! #SLX! name of the configuration
   jp_cfg      =      60             !  resolution of the configuration
   jpidta      =     883              ! #SLX! 1st lateral dimension ( >= jpi )
   jpjdta      =     803              ! #SLX! 2nd    "         "    ( >= jpj )
   jpkdta      =     212              ! #SLX! number of levels      ( >= jpk )
   jpiglo      =     883              ! #SLX! 1st dimension of global domain --> i =jpidta
   jpjglo      =     803              ! #SLX! 2nd    -                  -    --> j =jpjdta
   jpizoom     =       1              !  left bottom (i,j) indices of the zoom
   jpjzoom     =       1              !  in data domain indices
   jperio      =       0              !  lateral cond. type (between 0 and 6)
/
!-----------------------------------------------------------------------
&namzgr        !   vertical coordinate
!-----------------------------------------------------------------------
   ln_zps      = .true.    !  z-coordinate - partial steps   (T/F)
/
!-----------------------------------------------------------------------
&namzgr_sco    !   s-coordinate or hybrid z-s-coordinate
!-----------------------------------------------------------------------
/
!-----------------------------------------------------------------------
&namdom        !   space and time domain (bathymetry, mesh, timestep)
!-----------------------------------------------------------------------
   nn_closea   =    0      !  remove (=0) or keep (=1) closed seas and lakes (ORCA)
   nn_msh      =    0      ! #SLX 6 ! create (=1) a mesh file or not (=0) #lulu
   rn_hmin     =   -16.    ! #LOLO!  min depth of the ocean (>0) or min number of ocean level (<0) #lulu
   rn_e3zps_min=   25.     !  partial step thickness is set larger than the minimum of
   rn_e3zps_rat=    0.2    !  rn_e3zps_min and rn_e3zps_rat*e3t, with 0<rn_e3zps_rat<1
                           !
   rn_rdt      =   80.     ! 40  time step for the dynamics (and tracer if nn_acc=0) #lulu
   rn_atfp     =    0.1    ! #LOLO! asselin time filter parameter
   ppglam0     =  999999.d0            !  longitude of first raw and column T-point (jphgr_msh = 1)
   ppgphi0     =  999999.d0            ! latitude  of first raw and column T-point (jphgr_msh = 1)
   ppe1_deg    =  999999.d0            !  zonal      grid-spacing (degrees)
   ppe2_deg    =  999999.d0            !  meridional grid-spacing (degrees)
   ppe1_m      =  999999.d0            !  zonal      grid-spacing (degrees)
   ppe2_m      =  999999.d0            !  meridional grid-spacing (degrees)
   ppsur       =  -12539.3187051d0     !  ORCA r4, r2 and r05 coefficients
   ppa0        =    48.7693273601d0    ! (default coefficients)
   ppa1        =    42.8722426445d0    !
   ppkth       =    317.238187329d0    !
   ppacr       =    38.4998412469d0    !
   ppdzmin     =        999999.d0      !  Minimum vertical spacing
   pphmax      =        999999.d0      !  Maximum depth
   ldbletanh   =           .true.      !  Use/do not use double tanf function for vertical coordinates
   ppa2        =  20.1768193931d0      !  Double tanh function parameters
   ppkth2      =  31.5541059316d0      !
   ppacr2      =  121.356963487d0      !
/
!-----------------------------------------------------------------------
&namsplit      !   time splitting parameters                            ("key_dynspg_ts")
!-----------------------------------------------------------------------
   ln_bt_fw      =    .false.          ! #LOLO? <needs u2b et v2b in restarts...>  Forward integration of barotropic equations
   ln_bt_av      =    .true.           !  Time filtering of barotropic variables
   ln_bt_nn_auto =    .true.           !  Set nn_baro automatically to be just below
                                       !  a user defined maximum courant number (rn_bt_cmax)
   nn_baro       =    30               ! #LOLO!  Number of iterations of barotropic mode
                                       !  during rn_rdt seconds. Only used if ln_bt_nn_auto=F
   rn_bt_cmax    =    0.65             !0.65 #LOLO! Maximum courant number allowed if ln_bt_nn_auto=T  #lulu
   nn_bt_flt     =    2                ! #LOLO! Time filter choice ( => Jouano p.c. ?)
                                       !  = 0 None
                                       !  = 1 Boxcar over   nn_baro barotropic steps
                                       !  = 2 Boxcar over 2*nn_baro     "        "
/
!-----------------------------------------------------------------------
&namcrs        !   Grid coarsening for dynamics output and/or
               !   passive tracer coarsened online simulations
!-----------------------------------------------------------------------
/
!-----------------------------------------------------------------------
&namtsd    !   data : Temperature  & Salinity
!-----------------------------------------------------------------------
!-----------------------------------------------------------------------
!          !  file name                            ! frequency (hours) ! variable  ! time interp. !  clim  ! 'yearly'/ ! weights  ! rotation ! land/sea mask !
!          !                                       !  (if <0  months)  !   name    !   (logical)  !  (T/F) ! 'monthly' ! filename ! pairing  ! filename      !
   sn_tem_dmp  = 'votemper_GLORYS12V1-MEDWEST60_2008', -12     ,'votemper',   .true.    , .true. , 'yearly'  ,    ''    ,    ''    ,    ''
   sn_sal_dmp  = 'vosaline_GLORYS12V1-MEDWEST60_2008', -12     ,'vosaline',   .true.    , .true. ,'yearly'  ,    ''    ,    ''    ,    ''

   sn_tem_ini  = 'votemper_GLORYS12V1-MEDWEST60_2008', -12     ,'votemper',   .true.    , .true. , 'yearly'  ,    ''    ,    ''    ,    ''
   sn_sal_ini  = 'vosaline_GLORYS12V1-MEDWEST60_2008', -12     ,'vosaline',   .true.    , .true. ,'yearly'  ,    ''    ,    ''    ,    ''
  
 !
   cn_dir='./'
   ln_tsd_init   = .true.  ! Initialisation of ocean T & S with T &S input data (T) or not (F)
   ln_tsd_tradmp = .false.  !  damping of ocean T & S toward T & S input data (T) or not (F)

/
!!======================================================================
!!            ***  Surface Boundary Condition namelists  ***
!!======================================================================
!!   namsbc          surface boundary condition
!!   namsbc_ana      analytical         formulation
!!   namsbc_flx      flux               formulation
!!   namsbc_clio     CLIO bulk formulae formulation
!!   namsbc_core     CORE bulk formulae formulation
!!   namsbc_mfs      MFS  bulk formulae formulation
!!   namsbc_cpl      CouPLed            formulation                     ("key_oasis3")
!!   namsbc_sas      StAndalone Surface module
!!   namtra_qsr      penetrative solar radiation
!!   namsbc_rnf      river runoffs
!!   namsbc_isf      ice shelf melting/freezing
!!   namsbc_apr      Atmospheric Pressure
!!   namsbc_ssr      sea surface restoring term (for T and/or S)
!!   namsbc_alb      albedo parameters
!!======================================================================
!
!-----------------------------------------------------------------------
&namsbc        !   Surface Boundary Condition (surface module)
!-----------------------------------------------------------------------
   nn_fsbc     = 3         ! 6 #LOLO! (4 min @ dt=40s)  frequency of surface boundary condition computation #lulu
   ln_blk_core = .true.    !  CORE bulk formulation                     (T => fill namsbc_core)
   ln_apr_dyn  = .true.    ! #LOLO?  Patm gradient added in ocean & ice Eqs.   (T => fill namsbc_apr ) #lulu
   nn_ice      = 0         !  #SLX =0 no ice boundary condition   ,
                           !  =1 use observed ice-cover      ,
                           !  =2 ice-model used                         ("key_lim3" or "key_lim2")
   nn_ice_embd = 1         !  =0 levitating ice (no mass exchange, concentration/dilution effect)
                           !  =1 levitating ice with mass and salt exchange but no presure effect
                           !  =2 embedded sea-ice (full salt and mass exchanges and pressure)
   ln_dm2dc    = .true.    !  daily mean to diurnal cycle on short wave
   ln_rnf      = .true.    !  runoffs                                   (T   => fill namsbc_rnf)
   nn_isf      = 0         !  ice shelf melting/freezing                (/=0 => fill namsbc_isf)
                           !  0 =no isf                  1 = presence of ISF
                           !  2 = bg03 parametrisation   3 = rnf file for isf
                           !  4 = ISF fwf specified
                           !  option 1 and 4 need ln_isfcav = .true. (domzgr)
   ln_ssr      = .true.    !  Sea Surface Restoring on T and/or S       (T => fill namsbc_ssr)
   nn_fwb      = 0         ! #LOLO! FreshWater Budget: =0 unchecked
                           !     =1 global mean of e-p-r set to zero at each time step
                           !     =2 annual global mean of e-p-r set to zero
/
!-----------------------------------------------------------------------
&namsbc_core   !   namsbc_core  CORE bulk formulae
!-----------------------------------------------------------------------
!              !  file name                    ! frequency (hours) ! variable  ! time interp. !  clim  ! 'yearly'/ ! weights                               ! rotation ! land/sea mask !
!              !                               !  (if <0  months)  !   name    !   (logical)  !  (T/F) ! 'monthly' ! filename                              ! pairing  ! filename      !
   sn_wndi     = 'drowned_u10_DFS5.2'          ,         3         , 'u10'     ,   .false.  , .false., 'yearly'  , 'weight_bicubic_512x256-MEDWEST60.nc' , 'Uwnd'   , ''
   sn_wndj     = 'drowned_v10_DFS5.2'          ,         3         , 'v10'     ,   .false.  , .false., 'yearly'  , 'weight_bicubic_512x256-MEDWEST60.nc' , 'Vwnd'   , ''
   sn_qsr      = 'drowned_radsw_DFS5.2'        ,        24         , 'radsw'   ,   .false.  , .false., 'yearly'  , 'weight_bilinear_512x256-MEDWEST60.nc' , ''       , ''
   sn_qlw      = 'drowned_radlw_DFS5.2'        ,        24         , 'radlw'   ,   .false.  , .false., 'yearly'  , 'weight_bilinear_512x256-MEDWEST60.nc' , ''       , ''
   sn_tair     = 'drowned_t2_DFS5.2'           ,         3         , 't2'      ,   .false.  , .false., 'yearly'  , 'weight_bilinear_512x256-MEDWEST60.nc' , ''       , ''
   sn_humi     = 'drowned_q2_DFS5.2'           ,         3         , 'q2'      ,   .false.  , .false., 'yearly'  , 'weight_bilinear_512x256-MEDWEST60.nc' , ''       , ''
   sn_prec     = 'drowned_precip_DFS5.2'       ,        24         , 'precip'  ,   .false.  , .false., 'yearly'  , 'weight_bilinear_512x256-MEDWEST60.nc' , ''       , ''
   sn_snow     = 'drowned_snow_DFS5.2'         ,        24         , 'snow'    ,   .false.  , .false., 'yearly'  , 'weight_bilinear_512x256-MEDWEST60.nc' , ''       , ''
   cn_dir      = './FATM/'  !  root directory for the location of the bulk files
   rn_zqt      =  2.        !  Air temperature and humidity reference height (m)
   rn_zu       = 10.        !  Wind vector reference height (m)
   !!
   rn_vfac     = 0.5       !#LOLO Julien Jouano! multiplicative factor for ocean/ice velocity
                           !  in the calculation of the wind stress (0.=absolute winds or 1.=relative winds)
/
!-----------------------------------------------------------------------
&namtra_qsr    !   penetrative solar radiation
!-----------------------------------------------------------------------
!              !  file name  ! frequency (hours) ! variable  ! time interp. !  clim  ! 'yearly'/ ! weights  ! rotation ! land/sea mask !
!              !             !  (if <0  months)  !   name    !   (logical)  !  (T/F) ! 'monthly' ! filename ! pairing  ! filename      !
   sn_chl      ='CHLA_ESACCI-OC-L3S-4km-eNATL60_y2010_MEDWEST60', -1    , 'CHLA'    ,   .true.     , .true. , 'yearly'  , ''       , ''       , ''
   ln_traqsr   = .true.    !  Light penetration (T) or not (F)
   ln_qsr_rgb  = .true.    !  RGB (Red-Green-Blue) light penetration
   ln_qsr_2bd  = .false.   !  2 bands              light penetration
   nn_chldta   =      0    ! #LOLO!  RGB : 2D Chl data (=1), 3D Chl data (=2) or cst value (=0)
/
!-----------------------------------------------------------------------
&namsbc_rnf    !   runoffs namelist surface boundary condition
!-----------------------------------------------------------------------
!              !  file name           ! frequency (hours) ! variable  ! time interp. !  clim  ! 'yearly'/ ! weights  ! rotation ! land/sea mask !
!              !                      !  (if <0  months)  !   name    !   (logical)  !  (T/F) ! 'monthly' ! filename ! pairing  ! filename      !
   sn_rnf      = 'MEDWEST60_runoff_3.1.3.nc'    ,-1                 ,'sorunoff' ,.true.        , .true. , 'yearly'  , ''       , ''       , ''
   sn_cnf      = 'MEDWEST60_runoff_3.1.3.nc'    , 0                 ,'socoefr'  , .false.      , .true. , 'yearly'  , ''       , ''       , ''
   ln_rnf_mouth = .true.     ! #LOLO!  specific treatment at rivers mouths
   rn_hrnf      =  15.e0     !  depth over which enhanced vertical mixing is used
   rn_avt_rnf   =   2.e-3    ! #LOLO! value of the additional vertical mixing coef. [m2/s]
   ln_rnf_depth = .false.    !  read in depth information for runoff
   ln_rnf_tem   = .false.    !  read in temperature information for runoff
   ln_rnf_sal   = .false.    !  read in salinity information for runoff
   ln_rnf_depth_ini = .true. !  compute depth at initialisation from runoff file
   rn_rnf_max   = 0.05       !  max value of the runoff climatology over global domain ( if ln_rnf_depth_ini = .true )
   rn_dep_max = 150.         !  depth over which runoffs is spread ( ln_rnf_depth_ini = .true )
   nn_rnf_depth_file = 0     ! create (=1) a runoff depth file or not (=0)
/
!-----------------------------------------------------------------------
&namsbc_apr    !   Atmospheric pressure used as ocean forcing or in bulk
!-----------------------------------------------------------------------
!              !  file name  ! frequency (hours) ! variable  ! time interp. !  clim  ! 'yearly'/ ! weights  ! rotation ! land/sea mask !
!              !             !  (if <0  months)  !   name    !   (logical)  !  (T/F) ! 'monthly' ! filename ! pairing  ! filename      !
   sn_apr      = 'drowned_msl_ERAinterim', 3     ,   'MSL'   ,    .true.    ,.false. , 'yearly'  ,'weight_bilinear_512x256-MEDWEST60.nc','',''
   cn_dir      = './FATM/'  !  root directory for the location of the bulk files
   rn_pref     = 101000.    !  reference atmospheric pressure   [N/m2]/
   ln_ref_apr  = .false.    !  ref. pressure: global mean Patm (T) or a constant (F)
   ln_apr_obc  = .false.    !  inverse barometer added to OBC ssh data
/
!-----------------------------------------------------------------------
&namsbc_ssr    !   surface boundary condition : sea surface restoring
!-----------------------------------------------------------------------
!              !  file name  ! frequency (hours) ! variable  ! time interp. !  clim  ! 'yearly'/ ! weights  ! rotation ! land/sea mask !
!              !             !  (if <0  months)  !   name    !   (logical)  !  (T/F) ! 'monthly' ! filename ! pairing  ! filename      !
   sn_sss      = 'sss_WOA2013-1440x720-eNATL60_mean_2005-2012_MEDWEST60',-1,  'sss'   ,    .true.   , .true. , 'yearly'  ,    ''    ,    ''    ,     ''
   nn_sssr     =     2     !  add a damping     term in the surface freshwater flux (=2)
   rn_deds     =  -166.67  ! #LOLO?  magnitude of the damping on salinity   [mm/day]
   rn_sssr_bnd =   4.e0    ! #LOLO?  ABS(Max/Min) value of the damping erp term [mm/day]
/
!-----------------------------------------------------------------------
&namsbc_alb    !   albedo parameters
!-----------------------------------------------------------------------
/
!-----------------------------------------------------------------------
&namberg       !   iceberg parameters
!-----------------------------------------------------------------------
      ln_icebergs              = .false.
/
!-----------------------------------------------------------------------
&namlbc        !   lateral momentum boundary condition
!-----------------------------------------------------------------------
   rn_shlat    =    2.     ! #LOLO? shlat = 0  !  0 < shlat < 2  !  shlat = 2  !  2 < shlat #lulu
                           !       free slip  !   partial slip  !   no slip   ! strong slip
   ln_vorlat   = .false.   !  consistency of vorticity boundary condition with analytical eqs.
/
!-----------------------------------------------------------------------
&namcla        !   cross land advection
!-----------------------------------------------------------------------
   nn_cla      =    0      !  advection between 2 ocean pts separates by land
/
!-----------------------------------------------------------------------
&nam_tide      !   tide parameters (#ifdef key_tide)
!-----------------------------------------------------------------------
   clname(1)  =  'M2'
   clname(2)  =  'S2'
   clname(3)  =  'N2'
   clname(4)  =  'K1'
   clname(5)  =  'O1'
/
!-----------------------------------------------------------------------
&nambdy        !  unstructured open boundaries                          ("key_bdy")
!-----------------------------------------------------------------------
   nb_bdy         = 2        !  number of open boundary sets
   ln_coords_file = .false.,.false.      !  =T : read bdy coordinates from file
   cn_dyn2d       = 'flather','flather'  ! #LOLO!
!!   cn_dyn2d       = 'frs','frs'
   nn_dyn2d_dta   = 1,1                  !  = 0, bdy data are equal to the initial state
      !                       !  #SLX! = 1, bdy data are read in 'bdydata   .nc' files
      !                       !  = 2, use tidal harmonic forcing data from files
      !                       !  = 3, use external data AND tidal harmonic forcing
   cn_dyn3d      =  'frs','frs'        !
   nn_dyn3d_dta  =  1,1                !  = 0, bdy data are equal to the initial state
   !                                   !  = 1, bdy data are read in 'bdydata   .nc' files
   cn_tra        =  'frs','frs'        !
   nn_tra_dta    =  1,1                !  = 0, bdy data are equal to the initial state
   !                                   !  = 1, bdy data are read in 'bdydata   .nc' files
   cn_ice_lim    =  'none','none'       ! #SLX
   nn_ice_lim_dta=  0,1                !  = 0, bdy data are equal to the initial state
   !                                   !  = 1, bdy data are read in 'bdydata   .nc' files
   rn_ice_tem    = 270.,270.           !  lim3 only: arbitrary temperature of incoming sea ice
   rn_ice_sal    = 10. ,10.            !  lim3 only:      --   salinity           --
   rn_ice_age    = 30. ,30.            !  lim3 only:      --   age                --
   !
   ln_tra_dmp    =.false.,.false.       !  open boudaries conditions for tracers
   ln_dyn3d_dmp  =.false.,.false.        !  open boundary condition for baroclinic velocities
   rn_time_dmp   =  0.042,0.042     !1.,1. Damping time scale in days #SLX
   rn_time_dmp_out = 0.042,0.042   ! 1.,1. Outflow damping time scale  #SLX
   nn_rimwidth   = 12,12        !  width of the relaxation zone
   ln_vol        = .true.     !  total volume correction (see nn_volctl parameter)
   nn_volctl     =  1         !  = 0, the total water flux across open boundaries is zero
/
!-----------------------------------------------------------------------
&nambdy_index  !  structured open boundaries definition     
!-----------------------------------------------------------------------
    ctypebdy ='W'                   ! Open boundary type (W,E,S or N)
    nbdyind  = 2                    ! indice of velocity row or column
                                    ! if ==-1, set obc at the domain boundary
                                    !        , discard start and end indices
    nbdybeg  = 60                 ! indice of segment start
    nbdyend  = 80                 ! indice of segment end
/
!-----------------------------------------------------------------------
&nambdy_index  !  structured open boundaries definition
!-----------------------------------------------------------------------
    ctypebdy ='E'                   ! Open boundary type (W,E,S or N)
    nbdyind  = 881                 ! indice of velocity row or column
                                    ! if ==-1, set obc at the domain boundary
                                    !        , discard start and end indices
    nbdybeg  = 165                 ! indice of segment start
    nbdyend  = 795                 ! indice of segment end
/
!-----------------------------------------------------------------------
&nambdy_dta      !  open boundaries WEST - external data
!-----------------------------------------------------------------------
!              !  file name      ! frequency (hours) ! variable   ! time interp.   !  clim   ! 'yearly'/ ! weights  ! rotation ! land/sea mask !
!              !                 !  (if <0  months)  !   name     !   (logical)    !  (T/F ) ! 'monthly' ! filename ! pairing  ! filename      !
   bn_ssh      = 'fixedYR_BD1W_MEDWEST60-BLBT02_y2010.1h_gridT-2D',1, 'sossheig',    .true.   , .false.,  'yearly'  ,    ''            ,   ''     ,     ''
   bn_u2d      = 'fixedYR_BD1W_MEDWEST60-BLBT02_y2010.1h_gridU-2D',1, 'vobtcrtx',    .true.   , .false.,  'yearly'  ,    ''            ,   ''     ,     ''
   bn_v2d      = 'fixedYR_BD1W_MEDWEST60-BLBT02_y2010.1h_gridV-2D',1, 'vobtcrty',    .true.   , .false.,  'yearly'  ,    ''            ,   ''     ,     ''
   bn_u3d      = 'fixedYR_BD1W_MEDWEST60-BLBT02_y2010.1h_gridU',1, 'vozocrtx',    .true.   , .false.,  'yearly'  ,    ''            ,   ''     ,     ''
   bn_v3d      = 'fixedYR_BD1W_MEDWEST60-BLBT02_y2010.1h_gridV',1, 'vomecrty',    .true.   , .false.,  'yearly'  ,    ''            ,   ''     ,     ''
   bn_tem      = 'fixedYR_BD1W_MEDWEST60-BLBT02_y2010.1h_gridT',1, 'votemper',    .true.   , .false.,  'yearly'  ,    ''            ,   ''     ,     ''
   bn_sal      = 'fixedYR_BD1W_MEDWEST60-BLBT02_y2010.1h_gridS',1, 'vosaline',    .true.   , .false.,  'yearly'  ,    ''            ,   ''     ,     ''
   cn_dir  =    './BDY/'
   ln_full_vel = .true.
/
!
!!-----------------------------------------------------------------------
&nambdy_dta    !  open boundaries EAST - external data                       
!-----------------------------------------------------------------------
!              !  file name      ! frequency (hours) ! variable   ! time interp.   !  clim   ! 'yearly'/ ! weights  ! rotation ! land/sea mask !
!              !                 !  (if <0  months)  !   name     !   (logical)    !  (T/F ) ! 'monthly' ! filename ! pairing  ! filename      !
   bn_ssh      = 'fixedYR3_BD2E_MEDWEST60-BLBT02_y2010.1h_gridT-2D',1, 'sossheig',    .true.   , .false.,  'yearly'  ,    ''            ,   ''     ,     ''
   bn_u2d      = 'fixedYR_BD2E_MEDWEST60-BLBT02_y2010.1h_gridU-2D',1, 'vobtcrtx',    .true.   , .false.,  'yearly'  ,    ''            ,   ''     ,     ''
   bn_v2d      = 'fixedYR3_BD2E_MEDWEST60-BLBT02_y2010.1h_gridV-2D',1, 'vobtcrty',    .true.   , .false.,  'yearly'  ,    ''            ,   ''     ,     ''
   bn_u3d      = 'fixedYR_BD2E_MEDWEST60-BLBT02_y2010.1h_gridU',1, 'vozocrtx',    .true.   , .false.,  'yearly'  ,    ''            ,   ''     ,     ''
   bn_v3d      = 'fixedYR3_BD2E_MEDWEST60-BLBT02_y2010.1h_gridV',1, 'vomecrty',    .true.   , .false.,  'yearly'  ,    ''            ,   ''     ,     ''
   bn_tem      = 'fixedYR3_BD2E_MEDWEST60-BLBT02_y2010.1h_gridT',1, 'votemper',    .true.   , .false.,  'yearly'  ,    ''            ,   ''     ,     ''
   bn_sal      = 'fixedYR3_BD2E_MEDWEST60-BLBT02_y2010.1h_gridS',1, 'vosaline',    .true.   , .false.,  'yearly'  ,    ''            ,   ''     ,     ''
!
!   bn_a_i      = 'ileadfra_GLORYS2V4-BDY_t_N_eNATL60_3.6',-1, 'ileadfra',    .true.   , .false. , 'yearly'  ,    ''    ,   ''     , '' ! #LOLO: MONTHLY of GLORYS2V4 !!! (not daily GLORYS12 as above)
!   bn_ht_i     = 'iicethic_GLORYS2V4-BDY_t_N_eNATL60_3.6',-1, 'iicethic',    .true.   , .false. , 'yearly'  ,    ''    ,   ''     , '' ! #LOLO: MONTHLY of GLORYS2V4 !!! (not daily GLORYS12 as above)
!   bn_ht_s     = 'isnowthi_GLORYS2V4-BDY_t_N_eNATL60_3.6',-1, 'isnowthi',    .true.   , .false. , 'yearly'  ,    ''    ,   ''     , '' ! #LOLO: MONTHLY of GLORYS2V4 !!! (not daily GLORYS12 as above)
! 
   cn_dir  =    './BDY/'/
   ln_full_vel = .true.
/
!
! #SLX!
!-----------------------------------------------------------------------
!&nambdy_tide     ! tidal forcing at open boundaries - SOUTH
!-----------------------------------------------------------------------
!   filtide      = './BDY/bdytide_FES2014b-eNATL60_S_'         !  file name root of tidal forcing files
!   ln_bdytide_2ddta = .false.
!   ln_bdytide_conj  = .false.
!/
!-----------------------------------------------------------------------
!&nambdy_tide     ! tidal forcing at open boundaries - NORTH
!-----------------------------------------------------------------------